@<TRIPOS>MOLECULE
*****
 6 5 0 0 0
SMALL
GASTEIGER

@<TRIPOS>ATOM
      1 O           0.6725    0.0089    0.0045 O.3     1  UNL1       -0.3982
      2 C          -0.7430    0.0341    0.0139 C.3     1  UNL1        0.0330
      3 H          -1.1212   -0.7250    0.7123 H       1  UNL1        0.0521
      4 H          -1.1038   -0.1196   -1.0121 H       1  UNL1        0.0521
      5 H          -1.0522    1.0293    0.3642 H       1  UNL1        0.0521
      6 H           0.9709   -0.6898    0.5961 H       1  UNL1        0.2090
@<TRIPOS>BOND
     1     4     2    1
     2     1     2    1
     3     1     6    1
     4     2     5    1
     5     2     3    1
